.model MbreakPD-05 PMOS LEVEL=3 L=0.35u W=0.5u TOX=7n CGDO=50.57E-12 
+ CGSO=50.57E-12 CJ=111E-5 CJSW=3.6E-10 JS=0.29E-6 JSSW=2.8E-13 MJ=0.453 
+ MJSW=0.267 N=1.05 PB=0.894 PBSW=0.616 RD=1284 RS=1284 RSH=1.8 DELTA=-0.56 
+ ETA=0 GAMMA=0.618 KP=46.3u KAPPA=2 LD=0.01u NSUB=2.8E17 PHI=0.895 
+ THETA=0.199 TPG=+1 UO=100 VMAX=104.47K VTO=-0.676 WD=-0.06u XJ=0.1u 
*$
.model MbreakPD-10 PMOS LEVEL=3 L=0.35u W=1.0u TOX=7n CGDO=50.57E-12 
+ CGSO=50.57E-12 CJ=111E-5 CJSW=3.6E-10 JS=0.29E-6 JSSW=2.8E-13 MJ=0.453 
+ MJSW=0.267 N=1.05 PB=0.894 PBSW=0.616 RD=713 RS=713 RSH=1.8 DELTA=-0.56 
+ ETA=0 GAMMA=0.618 KP=46.3u KAPPA=2 LD=0.01u NSUB=2.8E17 PHI=0.895 
+ THETA=0.199 TPG=+1 UO=100 VMAX=104.47K VTO=-0.676 WD=-0.06u XJ=0.1u 
*$
.model MbreakPD-15 PMOS LEVEL=3 L=0.35u W=1.5u TOX=7n CGDO=50.57E-12 
+ CGSO=50.57E-12 CJ=111E-5 CJSW=3.6E-10 JS=0.29E-6 JSSW=2.8E-13 MJ=0.453 
+ MJSW=0.267 N=1.05 PB=0.894 PBSW=0.616 RD=494 RS=494 RSH=1.8 DELTA=-0.56 
+ ETA=0 GAMMA=0.618 KP=46.3u KAPPA=2 LD=0.01u NSUB=2.8E17 PHI=0.895 
+ THETA=0.199 TPG=+1 UO=100 VMAX=104.47K VTO=-0.676 WD=-0.06u XJ=0.1u 
*$
.model MbreakPD-20 PMOS LEVEL=3 L=0.35u W=2.0u TOX=7n CGDO=50.57E-12 
+ CGSO=50.57E-12 CJ=111E-5 CJSW=3.6E-10 JS=0.29E-6 JSSW=2.8E-13 MJ=0.453 
+ MJSW=0.267 N=1.05 PB=0.894 PBSW=0.616 RD=378 RS=378 RSH=1.8 DELTA=-0.56 
+ ETA=0 GAMMA=0.618 KP=46.3u KAPPA=2 LD=0.01u NSUB=2.8E17 PHI=0.895 
+ THETA=0.199 TPG=+1 UO=100 VMAX=104.47K VTO=-0.676 WD=-0.06u XJ=0.1u 
*$
.model MbreakPD-25 PMOS LEVEL=3 L=0.35u W=2.5u TOX=7n CGDO=50.57E-12 
+ CGSO=50.57E-12 CJ=111E-5 CJSW=3.6E-10 JS=0.29E-6 JSSW=2.8E-13 MJ=0.453 
+ MJSW=0.267 N=1.05 PB=0.894 PBSW=0.616 RD=307 RS=307 RSH=1.8 DELTA=-0.56 
+ ETA=0 GAMMA=0.618 KP=46.3u KAPPA=2 LD=0.01u NSUB=2.8E17 PHI=0.895 
+ THETA=0.199 TPG=+1 UO=100 VMAX=104.47K VTO=-0.676 WD=-0.06u XJ=0.1u 
*$
.model MbreakPD-30 PMOS LEVEL=3 L=0.35u W=3.0u TOX=7n CGDO=50.57E-12 
+ CGSO=50.57E-12 CJ=111E-5 CJSW=3.6E-10 JS=0.29E-6 JSSW=2.8E-13 MJ=0.453 
+ MJSW=0.267 N=1.05 PB=0.894 PBSW=0.616 RD=259 RS=259 RSH=1.8 DELTA=-0.56 
+ ETA=0 GAMMA=0.618 KP=46.3u KAPPA=2 LD=0.01u NSUB=2.8E17 PHI=0.895 
+ THETA=0.199 TPG=+1 UO=100 VMAX=104.47K VTO=-0.676 WD=-0.06u XJ=0.1u 
*$
.model MbreakPD-35 PMOS LEVEL=3 L=0.35u W=3.5u TOX=7n CGDO=50.57E-12 
+ CGSO=50.57E-12 CJ=111E-5 CJSW=3.6E-10 JS=0.29E-6 JSSW=2.8E-13 MJ=0.453 
+ MJSW=0.267 N=1.05 PB=0.894 PBSW=0.616 RD=223 RS=223 RSH=1.8 DELTA=-0.56 
+ ETA=0 GAMMA=0.618 KP=46.3u KAPPA=2 LD=0.01u NSUB=2.8E17 PHI=0.895 
+ THETA=0.199 TPG=+1 UO=100 VMAX=104.47K VTO=-0.676 WD=-0.06u XJ=0.1u 
*$
.model MbreakPD-40 PMOS LEVEL=3 L=0.35u W=4.0u TOX=7n CGDO=50.57E-12 
+ CGSO=50.57E-12 CJ=111E-5 CJSW=3.6E-10 JS=0.29E-6 JSSW=2.8E-13 MJ=0.453 
+ MJSW=0.267 N=1.05 PB=0.894 PBSW=0.616 RD=197 RS=197 RSH=1.8 DELTA=-0.56 
+ ETA=0 GAMMA=0.618 KP=46.3u KAPPA=2 LD=0.01u NSUB=2.8E17 PHI=0.895 
+ THETA=0.199 TPG=+1 UO=100 VMAX=104.47K VTO=-0.676 WD=-0.06u XJ=0.1u 
*$
.model MbreakPD-45 PMOS LEVEL=3 L=0.35u W=4.5u TOX=7n CGDO=50.57E-12 
+ CGSO=50.57E-12 CJ=111E-5 CJSW=3.6E-10 JS=0.29E-6 JSSW=2.8E-13 MJ=0.453 
+ MJSW=0.267 N=1.05 PB=0.894 PBSW=0.616 RD=176 RS=176 RSH=1.8 DELTA=-0.56 
+ ETA=0 GAMMA=0.618 KP=46.3u KAPPA=2 LD=0.01u NSUB=2.8E17 PHI=0.895 
+ THETA=0.199 TPG=+1 UO=100 VMAX=104.47K VTO=-0.676 WD=-0.06u XJ=0.1u 
*$
.model MbreakPD-50 PMOS LEVEL=3 L=0.35u W=5.0u TOX=7n CGDO=50.57E-12 
+ CGSO=50.57E-12 CJ=111E-5 CJSW=3.6E-10 JS=0.29E-6 JSSW=2.8E-13 MJ=0.453 
+ MJSW=0.267 N=1.05 PB=0.894 PBSW=0.616 RD=159 RS=159 RSH=1.8 DELTA=-0.56 
+ ETA=0 GAMMA=0.618 KP=46.3u KAPPA=2 LD=0.01u NSUB=2.8E17 PHI=0.895 
+ THETA=0.199 TPG=+1 UO=100 VMAX=104.47K VTO=-0.676 WD=-0.06u XJ=0.1u 
*$
.model MbreakPD-55 PMOS LEVEL=3 L=0.35u W=5.5u TOX=7n CGDO=50.57E-12 
+ CGSO=50.57E-12 CJ=111E-5 CJSW=3.6E-10 JS=0.29E-6 JSSW=2.8E-13 MJ=0.453 
+ MJSW=0.267 N=1.05 PB=0.894 PBSW=0.616 RD=145 RS=145 RSH=1.8 DELTA=-0.56 
+ ETA=0 GAMMA=0.618 KP=46.3u KAPPA=2 LD=0.01u NSUB=2.8E17 PHI=0.895 
+ THETA=0.199 TPG=+1 UO=100 VMAX=104.47K VTO=-0.676 WD=-0.06u XJ=0.1u 
*$
.model MbreakPD-60 PMOS LEVEL=3 L=0.35u W=6.0u TOX=7n CGDO=50.57E-12 
+ CGSO=50.57E-12 CJ=111E-5 CJSW=3.6E-10 JS=0.29E-6 JSSW=2.8E-13 MJ=0.453 
+ MJSW=0.267 N=1.05 PB=0.894 PBSW=0.616 RD=134 RS=134 RSH=1.8 DELTA=-0.56 
+ ETA=0 GAMMA=0.618 KP=46.3u KAPPA=2 LD=0.01u NSUB=2.8E17 PHI=0.895 
+ THETA=0.199 TPG=+1 UO=100 VMAX=104.47K VTO=-0.676 WD=-0.06u XJ=0.1u 
*$
.model MbreakPD-65 PMOS LEVEL=3 L=0.35u W=6.5u TOX=7n CGDO=50.57E-12 
+ CGSO=50.57E-12 CJ=111E-5 CJSW=3.6E-10 JS=0.29E-6 JSSW=2.8E-13 MJ=0.453 
+ MJSW=0.267 N=1.05 PB=0.894 PBSW=0.616 RD=124 RS=124 RSH=1.8 DELTA=-0.56 
+ ETA=0 GAMMA=0.618 KP=46.3u KAPPA=2 LD=0.01u NSUB=2.8E17 PHI=0.895 
+ THETA=0.199 TPG=+1 UO=100 VMAX=104.47K VTO=-0.676 WD=-0.06u XJ=0.1u 
*$
.model MbreakPD-70 PMOS LEVEL=3 L=0.35u W=7.0u TOX=7n CGDO=50.57E-12 
+ CGSO=50.57E-12 CJ=111E-5 CJSW=3.6E-10 JS=0.29E-6 JSSW=2.8E-13 MJ=0.453 
+ MJSW=0.267 N=1.05 PB=0.894 PBSW=0.616 RD=116 RS=116 RSH=1.8 DELTA=-0.56 
+ ETA=0 GAMMA=0.618 KP=46.3u KAPPA=2 LD=0.01u NSUB=2.8E17 PHI=0.895 
+ THETA=0.199 TPG=+1 UO=100 VMAX=104.47K VTO=-0.676 WD=-0.06u XJ=0.1u 
*$
.model MbreakPD-75 PMOS LEVEL=3 L=0.35u W=7.5u TOX=7n CGDO=50.57E-12 
+ CGSO=50.57E-12 CJ=111E-5 CJSW=3.6E-10 JS=0.29E-6 JSSW=2.8E-13 MJ=0.453 
+ MJSW=0.267 N=1.05 PB=0.894 PBSW=0.616 RD=108 RS=108 RSH=1.8 DELTA=-0.56 
+ ETA=0 GAMMA=0.618 KP=46.3u KAPPA=2 LD=0.01u NSUB=2.8E17 PHI=0.895 
+ THETA=0.199 TPG=+1 UO=100 VMAX=104.47K VTO=-0.676 WD=-0.06u XJ=0.1u 
*$
.model MbreakPD-80 PMOS LEVEL=3 L=0.35u W=8.0u TOX=7n CGDO=50.57E-12 
+ CGSO=50.57E-12 CJ=111E-5 CJSW=3.6E-10 JS=0.29E-6 JSSW=2.8E-13 MJ=0.453 
+ MJSW=0.267 N=1.05 PB=0.894 PBSW=0.616 RD=102 RS=102 RSH=1.8 DELTA=-0.56 
+ ETA=0 GAMMA=0.618 KP=46.3u KAPPA=2 LD=0.01u NSUB=2.8E17 PHI=0.895 
+ THETA=0.199 TPG=+1 UO=100 VMAX=104.47K VTO=-0.676 WD=-0.06u XJ=0.1u 
*$
.model MbreakPD-85 PMOS LEVEL=3 L=0.35u W=8.5u TOX=7n CGDO=50.57E-12 
+ CGSO=50.57E-12 CJ=111E-5 CJSW=3.6E-10 JS=0.29E-6 JSSW=2.8E-13 MJ=0.453 
+ MJSW=0.267 N=1.05 PB=0.894 PBSW=0.616 RD=96 RS=96 RSH=1.8 DELTA=-0.56 
+ ETA=0 GAMMA=0.618 KP=46.3u KAPPA=2 LD=0.01u NSUB=2.8E17 PHI=0.895 
+ THETA=0.199 TPG=+1 UO=100 VMAX=104.47K VTO=-0.676 WD=-0.06u XJ=0.1u 
*$
.model MbreakPD-90 PMOS LEVEL=3 L=0.35u W=9.0u TOX=7n CGDO=50.57E-12 
+ CGSO=50.57E-12 CJ=111E-5 CJSW=3.6E-10 JS=0.29E-6 JSSW=2.8E-13 MJ=0.453 
+ MJSW=0.267 N=1.05 PB=0.894 PBSW=0.616 RD=91 RS=91 RSH=1.8 DELTA=-0.56 
+ ETA=0 GAMMA=0.618 KP=46.3u KAPPA=2 LD=0.01u NSUB=2.8E17 PHI=0.895 
+ THETA=0.199 TPG=+1 UO=100 VMAX=104.47K VTO=-0.676 WD=-0.06u XJ=0.1u 
*$
.model MbreakPD-95 PMOS LEVEL=3 L=0.35u W=9.5u TOX=7n CGDO=50.57E-12 
+ CGSO=50.57E-12 CJ=111E-5 CJSW=3.6E-10 JS=0.29E-6 JSSW=2.8E-13 MJ=0.453 
+ MJSW=0.267 N=1.05 PB=0.894 PBSW=0.616 RD=87 RS=87 RSH=1.8 DELTA=-0.56 
+ ETA=0 GAMMA=0.618 KP=46.3u KAPPA=2 LD=0.01u NSUB=2.8E17 PHI=0.895 
+ THETA=0.199 TPG=+1 UO=100 VMAX=104.47K VTO=-0.676 WD=-0.06u XJ=0.1u 
*$
.model MbreakPD-100 PMOS LEVEL=3 L=0.35u W=10.0u TOX=7n CGDO=50.57E-12 
+ CGSO=50.57E-12 CJ=111E-5 CJSW=3.6E-10 JS=0.29E-6 JSSW=2.8E-13 MJ=0.453 
+ MJSW=0.267 N=1.05 PB=0.894 PBSW=0.616 RD=83 RS=83 RSH=1.8 DELTA=-0.56 
+ ETA=0 GAMMA=0.618 KP=46.3u KAPPA=2 LD=0.01u NSUB=2.8E17 PHI=0.895 
+ THETA=0.199 TPG=+1 UO=100 VMAX=104.47K VTO=-0.676 WD=-0.06u XJ=0.1u 
*$
.model MbreakPD-105 PMOS LEVEL=3 L=0.35u W=10.5u TOX=7n CGDO=50.57E-12 
+ CGSO=50.57E-12 CJ=111E-5 CJSW=3.6E-10 JS=0.29E-6 JSSW=2.8E-13 MJ=0.453 
+ MJSW=0.267 N=1.05 PB=0.894 PBSW=0.616 RD=79 RS=79 RSH=1.8 DELTA=-0.56 
+ ETA=0 GAMMA=0.618 KP=46.3u KAPPA=2 LD=0.01u NSUB=2.8E17 PHI=0.895 
+ THETA=0.199 TPG=+1 UO=100 VMAX=104.47K VTO=-0.676 WD=-0.06u XJ=0.1u 
*$
.model MbreakPD-110 PMOS LEVEL=3 L=0.35u W=11.0u TOX=7n CGDO=50.57E-12 
+ CGSO=50.57E-12 CJ=111E-5 CJSW=3.6E-10 JS=0.29E-6 JSSW=2.8E-13 MJ=0.453 
+ MJSW=0.267 N=1.05 PB=0.894 PBSW=0.616 RD=76 RS=76 RSH=1.8 DELTA=-0.56 
+ ETA=0 GAMMA=0.618 KP=46.3u KAPPA=2 LD=0.01u NSUB=2.8E17 PHI=0.895 
+ THETA=0.199 TPG=+1 UO=100 VMAX=104.47K VTO=-0.676 WD=-0.06u XJ=0.1u 
*$
.model MbreakPD-115 PMOS LEVEL=3 L=0.35u W=11.5u TOX=7n CGDO=50.57E-12 
+ CGSO=50.57E-12 CJ=111E-5 CJSW=3.6E-10 JS=0.29E-6 JSSW=2.8E-13 MJ=0.453 
+ MJSW=0.267 N=1.05 PB=0.894 PBSW=0.616 RD=73 RS=73 RSH=1.8 DELTA=-0.56 
+ ETA=0 GAMMA=0.618 KP=46.3u KAPPA=2 LD=0.01u NSUB=2.8E17 PHI=0.895 
+ THETA=0.199 TPG=+1 UO=100 VMAX=104.47K VTO=-0.676 WD=-0.06u XJ=0.1u 
*$
.model MbreakPD-120 PMOS LEVEL=3 L=0.35u W=12.0u TOX=7n CGDO=50.57E-12 
+ CGSO=50.57E-12 CJ=111E-5 CJSW=3.6E-10 JS=0.29E-6 JSSW=2.8E-13 MJ=0.453 
+ MJSW=0.267 N=1.05 PB=0.894 PBSW=0.616 RD=70 RS=70 RSH=1.8 DELTA=-0.56 
+ ETA=0 GAMMA=0.618 KP=46.3u KAPPA=2 LD=0.01u NSUB=2.8E17 PHI=0.895 
+ THETA=0.199 TPG=+1 UO=100 VMAX=104.47K VTO=-0.676 WD=-0.06u XJ=0.1u 
*$
.model MbreakPD-125 PMOS LEVEL=3 L=0.35u W=12.5u TOX=7n CGDO=50.57E-12 
+ CGSO=50.57E-12 CJ=111E-5 CJSW=3.6E-10 JS=0.29E-6 JSSW=2.8E-13 MJ=0.453 
+ MJSW=0.267 N=1.05 PB=0.894 PBSW=0.616 RD=67 RS=67 RSH=1.8 DELTA=-0.56 
+ ETA=0 GAMMA=0.618 KP=46.3u KAPPA=2 LD=0.01u NSUB=2.8E17 PHI=0.895 
+ THETA=0.199 TPG=+1 UO=100 VMAX=104.47K VTO=-0.676 WD=-0.06u XJ=0.1u 
*$
.model MbreakPD-130 PMOS LEVEL=3 L=0.35u W=13.0u TOX=7n CGDO=50.57E-12 
+ CGSO=50.57E-12 CJ=111E-5 CJSW=3.6E-10 JS=0.29E-6 JSSW=2.8E-13 MJ=0.453 
+ MJSW=0.267 N=1.05 PB=0.894 PBSW=0.616 RD=65 RS=65 RSH=1.8 DELTA=-0.56 
+ ETA=0 GAMMA=0.618 KP=46.3u KAPPA=2 LD=0.01u NSUB=2.8E17 PHI=0.895 
+ THETA=0.199 TPG=+1 UO=100 VMAX=104.47K VTO=-0.676 WD=-0.06u XJ=0.1u 
*$
.model MbreakPD-135 PMOS LEVEL=3 L=0.35u W=13.5u TOX=7n CGDO=50.57E-12 
+ CGSO=50.57E-12 CJ=111E-5 CJSW=3.6E-10 JS=0.29E-6 JSSW=2.8E-13 MJ=0.453 
+ MJSW=0.267 N=1.05 PB=0.894 PBSW=0.616 RD=62 RS=62 RSH=1.8 DELTA=-0.56 
+ ETA=0 GAMMA=0.618 KP=46.3u KAPPA=2 LD=0.01u NSUB=2.8E17 PHI=0.895 
+ THETA=0.199 TPG=+1 UO=100 VMAX=104.47K VTO=-0.676 WD=-0.06u XJ=0.1u 
*$
.model MbreakPD-140 PMOS LEVEL=3 L=0.35u W=14.0u TOX=7n CGDO=50.57E-12 
+ CGSO=50.57E-12 CJ=111E-5 CJSW=3.6E-10 JS=0.29E-6 JSSW=2.8E-13 MJ=0.453 
+ MJSW=0.267 N=1.05 PB=0.894 PBSW=0.616 RD=60 RS=60 RSH=1.8 DELTA=-0.56 
+ ETA=0 GAMMA=0.618 KP=46.3u KAPPA=2 LD=0.01u NSUB=2.8E17 PHI=0.895 
+ THETA=0.199 TPG=+1 UO=100 VMAX=104.47K VTO=-0.676 WD=-0.06u XJ=0.1u 
*$
.model MbreakPD-145 PMOS LEVEL=3 L=0.35u W=14.5u TOX=7n CGDO=50.57E-12 
+ CGSO=50.57E-12 CJ=111E-5 CJSW=3.6E-10 JS=0.29E-6 JSSW=2.8E-13 MJ=0.453 
+ MJSW=0.267 N=1.05 PB=0.894 PBSW=0.616 RD=58 RS=58 RSH=1.8 DELTA=-0.56 
+ ETA=0 GAMMA=0.618 KP=46.3u KAPPA=2 LD=0.01u NSUB=2.8E17 PHI=0.895 
+ THETA=0.199 TPG=+1 UO=100 VMAX=104.47K VTO=-0.676 WD=-0.06u XJ=0.1u 
*$
.model MbreakPD-150 PMOS LEVEL=3 L=0.35u W=15.0u TOX=7n CGDO=50.57E-12 
+ CGSO=50.57E-12 CJ=111E-5 CJSW=3.6E-10 JS=0.29E-6 JSSW=2.8E-13 MJ=0.453 
+ MJSW=0.267 N=1.05 PB=0.894 PBSW=0.616 RD=57 RS=57 RSH=1.8 DELTA=-0.56 
+ ETA=0 GAMMA=0.618 KP=46.3u KAPPA=2 LD=0.01u NSUB=2.8E17 PHI=0.895 
+ THETA=0.199 TPG=+1 UO=100 VMAX=104.47K VTO=-0.676 WD=-0.06u XJ=0.1u 
*$
.model MbreakPD-155 PMOS LEVEL=3 L=0.35u W=15.5u TOX=7n CGDO=50.57E-12 
+ CGSO=50.57E-12 CJ=111E-5 CJSW=3.6E-10 JS=0.29E-6 JSSW=2.8E-13 MJ=0.453 
+ MJSW=0.267 N=1.05 PB=0.894 PBSW=0.616 RD=55 RS=55 RSH=1.8 DELTA=-0.56 
+ ETA=0 GAMMA=0.618 KP=46.3u KAPPA=2 LD=0.01u NSUB=2.8E17 PHI=0.895 
+ THETA=0.199 TPG=+1 UO=100 VMAX=104.47K VTO=-0.676 WD=-0.06u XJ=0.1u 
*$
.model MbreakPD-160 PMOS LEVEL=3 L=0.35u W=16.0u TOX=7n CGDO=50.57E-12 
+ CGSO=50.57E-12 CJ=111E-5 CJSW=3.6E-10 JS=0.29E-6 JSSW=2.8E-13 MJ=0.453 
+ MJSW=0.267 N=1.05 PB=0.894 PBSW=0.616 RD=53 RS=53 RSH=1.8 DELTA=-0.56 
+ ETA=0 GAMMA=0.618 KP=46.3u KAPPA=2 LD=0.01u NSUB=2.8E17 PHI=0.895 
+ THETA=0.199 TPG=+1 UO=100 VMAX=104.47K VTO=-0.676 WD=-0.06u XJ=0.1u 
*$
.model MbreakPD-165 PMOS LEVEL=3 L=0.35u W=16.5u TOX=7n CGDO=50.57E-12 
+ CGSO=50.57E-12 CJ=111E-5 CJSW=3.6E-10 JS=0.29E-6 JSSW=2.8E-13 MJ=0.453 
+ MJSW=0.267 N=1.05 PB=0.894 PBSW=0.616 RD=52 RS=52 RSH=1.8 DELTA=-0.56 
+ ETA=0 GAMMA=0.618 KP=46.3u KAPPA=2 LD=0.01u NSUB=2.8E17 PHI=0.895 
+ THETA=0.199 TPG=+1 UO=100 VMAX=104.47K VTO=-0.676 WD=-0.06u XJ=0.1u 
*$
.model MbreakPD-170 PMOS LEVEL=3 L=0.35u W=17.0u TOX=7n CGDO=50.57E-12 
+ CGSO=50.57E-12 CJ=111E-5 CJSW=3.6E-10 JS=0.29E-6 JSSW=2.8E-13 MJ=0.453 
+ MJSW=0.267 N=1.05 PB=0.894 PBSW=0.616 RD=51 RS=51 RSH=1.8 DELTA=-0.56 
+ ETA=0 GAMMA=0.618 KP=46.3u KAPPA=2 LD=0.01u NSUB=2.8E17 PHI=0.895 
+ THETA=0.199 TPG=+1 UO=100 VMAX=104.47K VTO=-0.676 WD=-0.06u XJ=0.1u 
*$
.model MbreakND-10 NMOS LEVEL=3 L=0.35u W=1.0u TOX=7n CGDO=151.71E-12 
+ CGSO=151.71E-12 CJ=102E-5 CJSW=4.1E-10 JS=0.34E-6 JSSW=3.3E-13 MJ=0.364 
+ MJSW=0.255 N=1.05 PB=0.776 PBSW=0.757 RD=356 RS=356 RSH=2.0 
+ DELTA=-0.5 ETA=0 GAMMA=0.629 KP=218.2u KAPPA=0.16 LD=0.03u NSUB=2.9E17 
+ PHI=0.905 THETA=0.24 TPG=+1 UO=426.98 VMAX=132.16K VTO=0.683 WD=-0.01u 
+ XJ=0.1u 
*$
.model MbreakND-20 NMOS LEVEL=3 L=0.35u W=2.0u TOX=7n CGDO=151.71E-12 
+ CGSO=151.71E-12 CJ=102E-5 CJSW=4.1E-10 JS=0.34E-6 JSSW=3.3E-13 MJ=0.364 
+ MJSW=0.255 N=1.05 PB=0.776 PBSW=0.757 RD=182 RS=182 RSH=2.0 
+ DELTA=-0.5 ETA=0 GAMMA=0.629 KP=218.2u KAPPA=0.16 LD=0.03u NSUB=2.9E17 
+ PHI=0.905 THETA=0.24 TPG=+1 UO=426.98 VMAX=132.16K VTO=0.683 WD=-0.01u 
+ XJ=0.1u 
*$
.model MbreakND-40 NMOS LEVEL=3 L=0.35u W=4.0u TOX=7n CGDO=151.71E-12 
+ CGSO=151.71E-12 CJ=102E-5 CJSW=4.1E-10 JS=0.34E-6 JSSW=3.3E-13 MJ=0.364 
+ MJSW=0.255 N=1.05 PB=0.776 PBSW=0.757 RD=94 RS=94 RSH=2.0 
+ DELTA=-0.5 ETA=0 GAMMA=0.629 KP=218.2u KAPPA=0.16 LD=0.03u NSUB=2.9E17 
+ PHI=0.905 THETA=0.24 TPG=+1 UO=426.98 VMAX=132.16K VTO=0.683 WD=-0.01u 
+ XJ=0.1u 
*$