.model MbreakND-10 NMOS LEVEL=3 L=0.35u W=1.0u TOX=7n CGDO=151.71E-12 
+ CGSO=151.71E-12 CJ=102E-5 CJSW=4.1E-10 JS=0.34E-6 JSSW=3.3E-13 MJ=0.364 
+ MJSW=0.255 N=1.05 PB=0.776 PBSW=0.757 RD=355.8 RS=355.8 RSH=2.0 
+ DELTA=-0.5 ETA=0 GAMMA=0.629 KP=218.2u KAPPA=0.16 LD=0.03u NSUB=2.9E17 
+ PHI=0.905 THETA=0.24 TPG=+1 UO=426.98 VMAX=132.16K VTO=0.683 WD=-0.01u 
+ XJ=0.1u 
*$
.model MbreakND-20 NMOS LEVEL=3 L=0.35u W=2.0u TOX=7n CGDO=151.71E-12 
+ CGSO=151.71E-12 CJ=102E-5 CJSW=4.1E-10 JS=0.34E-6 JSSW=3.3E-13 MJ=0.364 
+ MJSW=0.255 N=1.05 PB=0.776 PBSW=0.757 RD=181.9 RS=181.9 RSH=2.0 
+ DELTA=-0.5 ETA=0 GAMMA=0.629 KP=218.2u KAPPA=0.16 LD=0.03u NSUB=2.9E17 
+ PHI=0.905 THETA=0.24 TPG=+1 UO=426.98 VMAX=132.16K VTO=0.683 WD=-0.01u 
+ XJ=0.1u 
*$
.model MbreakND-30 NMOS LEVEL=3 L=0.35u W=3.0u TOX=7n CGDO=151.71E-12 
+ CGSO=151.71E-12 CJ=102E-5 CJSW=4.1E-10 JS=0.34E-6 JSSW=3.3E-13 MJ=0.364 
+ MJSW=0.255 N=1.05 PB=0.776 PBSW=0.757 RD=123.2 RS=123.2 RSH=2.0 
+ DELTA=-0.5 ETA=0 GAMMA=0.629 KP=218.2u KAPPA=0.16 LD=0.03u NSUB=2.9E17 
+ PHI=0.905 THETA=0.24 TPG=+1 UO=426.98 VMAX=132.16K VTO=0.683 WD=-0.01u 
+ XJ=0.1u 
*$
.model MbreakND-40 NMOS LEVEL=3 L=0.35u W=4.0u TOX=7n CGDO=151.71E-12 
+ CGSO=151.71E-12 CJ=102E-5 CJSW=4.1E-10 JS=0.34E-6 JSSW=3.3E-13 MJ=0.364 
+ MJSW=0.255 N=1.05 PB=0.776 PBSW=0.757 RD=93.7 RS=93.7 RSH=2.0 
+ DELTA=-0.5 ETA=0 GAMMA=0.629 KP=218.2u KAPPA=0.16 LD=0.03u NSUB=2.9E17 
+ PHI=0.905 THETA=0.24 TPG=+1 UO=426.98 VMAX=132.16K VTO=0.683 WD=-0.01u 
+ XJ=0.1u 
*$
.model MbreakND-60 NMOS LEVEL=3 L=0.35u W=6.0u TOX=7n CGDO=151.71E-12 
+ CGSO=151.71E-12 CJ=102E-5 CJSW=4.1E-10 JS=0.34E-6 JSSW=3.3E-13 MJ=0.364 
+ MJSW=0.255 N=1.05 PB=0.776 PBSW=0.757 RD=64.1 RS=64.1 RSH=2.0 
+ DELTA=-0.5 ETA=0 GAMMA=0.629 KP=218.2u KAPPA=0.16 LD=0.03u NSUB=2.9E17 
+ PHI=0.905 THETA=0.24 TPG=+1 UO=426.98 VMAX=132.16K VTO=0.683 WD=-0.01u 
+ XJ=0.1u 
*$
.model MbreakND-80 NMOS LEVEL=3 L=0.35u W=8.0u TOX=7n CGDO=151.71E-12 
+ CGSO=151.71E-12 CJ=102E-5 CJSW=4.1E-10 JS=0.34E-6 JSSW=3.3E-13 MJ=0.364 
+ MJSW=0.255 N=1.05 PB=0.776 PBSW=0.757 RD=49.3 RS=49.3 RSH=2.0 
+ DELTA=-0.5 ETA=0 GAMMA=0.629 KP=218.2u KAPPA=0.16 LD=0.03u NSUB=2.9E17 
+ PHI=0.905 THETA=0.24 TPG=+1 UO=426.98 VMAX=132.16K VTO=0.683 WD=-0.01u 
+ XJ=0.1u 
*$
.model MbreakND-100 NMOS LEVEL=3 L=0.35u W=10.0u TOX=7n CGDO=151.71E-12 
+ CGSO=151.71E-12 CJ=102E-5 CJSW=4.1E-10 JS=0.34E-6 JSSW=3.3E-13 MJ=0.364 
+ MJSW=0.255 N=1.05 PB=0.776 PBSW=0.757 RD=40.3 RS=40.3 RSH=2.0 
+ DELTA=-0.5 ETA=0 GAMMA=0.629 KP=218.2u KAPPA=0.16 LD=0.03u NSUB=2.9E17 
+ PHI=0.905 THETA=0.24 TPG=+1 UO=426.98 VMAX=132.16K VTO=0.683 WD=-0.01u 
+ XJ=0.1u 
*$