.model MbreakPD-05 PMOS LEVEL=3 L=0.35u W=0.5u TOX=7n CGDO=50.57E-12 
+ CGSO=50.57E-12 CJ=111E-5 CJSW=3.6E-10 JS=0.29E-6 JSSW=2.8E-13 MJ=0.453 
+ MJSW=0.267 N=1.05 PB=0.894 PBSW=0.616 RD=1284.2 RS=1284.2 RSH=1.8 DELTA=-0.56 
+ ETA=0 GAMMA=0.618 KP=46.3u KAPPA=2 LD=0.01u NSUB=2.8E17 PHI=0.895 
+ THETA=0.199 TPG=+1 UO=100 VMAX=104.47K VTO=-0.676 WD=-0.06u XJ=0.1u 
*$
.model MbreakPD-10 PMOS LEVEL=3 L=0.35u W=1.0u TOX=7n CGDO=50.57E-12 
+ CGSO=50.57E-12 CJ=111E-5 CJSW=3.6E-10 JS=0.29E-6 JSSW=2.8E-13 MJ=0.453 
+ MJSW=0.267 N=1.05 PB=0.894 PBSW=0.616 RD=712.8 RS=712.8 RSH=1.8 DELTA=-0.56 
+ ETA=0 GAMMA=0.618 KP=46.3u KAPPA=2 LD=0.01u NSUB=2.8E17 PHI=0.895 
+ THETA=0.199 TPG=+1 UO=100 VMAX=104.47K VTO=-0.676 WD=-0.06u XJ=0.1u 
*$
.model MbreakPD-15 PMOS LEVEL=3 L=0.35u W=1.5u TOX=7n CGDO=50.57E-12 
+ CGSO=50.57E-12 CJ=111E-5 CJSW=3.6E-10 JS=0.29E-6 JSSW=2.8E-13 MJ=0.453 
+ MJSW=0.267 N=1.05 PB=0.894 PBSW=0.616 RD=494.1 RS=494.1 RSH=1.8 DELTA=-0.56 
+ ETA=0 GAMMA=0.618 KP=46.3u KAPPA=2 LD=0.01u NSUB=2.8E17 PHI=0.895 
+ THETA=0.199 TPG=+1 UO=100 VMAX=104.47K VTO=-0.676 WD=-0.06u XJ=0.1u 
*$
.model MbreakPD-20 PMOS LEVEL=3 L=0.35u W=2.0u TOX=7n CGDO=50.57E-12 
+ CGSO=50.57E-12 CJ=111E-5 CJSW=3.6E-10 JS=0.29E-6 JSSW=2.8E-13 MJ=0.453 
+ MJSW=0.267 N=1.05 PB=0.894 PBSW=0.616 RD=378.5 RS=378.5 RSH=1.8 DELTA=-0.56 
+ ETA=0 GAMMA=0.618 KP=46.3u KAPPA=2 LD=0.01u NSUB=2.8E17 PHI=0.895 
+ THETA=0.199 TPG=+1 UO=100 VMAX=104.47K VTO=-0.676 WD=-0.06u XJ=0.1u 
*$
.model MbreakPD-25 PMOS LEVEL=3 L=0.35u W=2.5u TOX=7n CGDO=50.57E-12 
+ CGSO=50.57E-12 CJ=111E-5 CJSW=3.6E-10 JS=0.29E-6 JSSW=2.8E-13 MJ=0.453 
+ MJSW=0.267 N=1.05 PB=0.894 PBSW=0.616 RD=307.1 RS=307.1 RSH=1.8 DELTA=-0.56 
+ ETA=0 GAMMA=0.618 KP=46.3u KAPPA=2 LD=0.01u NSUB=2.8E17 PHI=0.895 
+ THETA=0.199 TPG=+1 UO=100 VMAX=104.47K VTO=-0.676 WD=-0.06u XJ=0.1u 
*$
.model MbreakPD-30 PMOS LEVEL=3 L=0.35u W=3.0u TOX=7n CGDO=50.57E-12 
+ CGSO=50.57E-12 CJ=111E-5 CJSW=3.6E-10 JS=0.29E-6 JSSW=2.8E-13 MJ=0.453 
+ MJSW=0.267 N=1.05 PB=0.894 PBSW=0.616 RD=258.6 RS=258.6 RSH=1.8 DELTA=-0.56 
+ ETA=0 GAMMA=0.618 KP=46.3u KAPPA=2 LD=0.01u NSUB=2.8E17 PHI=0.895 
+ THETA=0.199 TPG=+1 UO=100 VMAX=104.47K VTO=-0.676 WD=-0.06u XJ=0.1u 
*$
.model MbreakPD-35 PMOS LEVEL=3 L=0.35u W=3.5u TOX=7n CGDO=50.57E-12 
+ CGSO=50.57E-12 CJ=111E-5 CJSW=3.6E-10 JS=0.29E-6 JSSW=2.8E-13 MJ=0.453 
+ MJSW=0.267 N=1.05 PB=0.894 PBSW=0.616 RD=223.4 RS=223.4 RSH=1.8 DELTA=-0.56 
+ ETA=0 GAMMA=0.618 KP=46.3u KAPPA=2 LD=0.01u NSUB=2.8E17 PHI=0.895 
+ THETA=0.199 TPG=+1 UO=100 VMAX=104.47K VTO=-0.676 WD=-0.06u XJ=0.1u 
*$
.model MbreakPD-40 PMOS LEVEL=3 L=0.35u W=4.0u TOX=7n CGDO=50.57E-12 
+ CGSO=50.57E-12 CJ=111E-5 CJSW=3.6E-10 JS=0.29E-6 JSSW=2.8E-13 MJ=0.453 
+ MJSW=0.267 N=1.05 PB=0.894 PBSW=0.616 RD=196.8 RS=196.8 RSH=1.8 DELTA=-0.56 
+ ETA=0 GAMMA=0.618 KP=46.3u KAPPA=2 LD=0.01u NSUB=2.8E17 PHI=0.895 
+ THETA=0.199 TPG=+1 UO=100 VMAX=104.47K VTO=-0.676 WD=-0.06u XJ=0.1u 
*$
.model MbreakPD-45 PMOS LEVEL=3 L=0.35u W=4.5u TOX=7n CGDO=50.57E-12 
+ CGSO=50.57E-12 CJ=111E-5 CJSW=3.6E-10 JS=0.29E-6 JSSW=2.8E-13 MJ=0.453 
+ MJSW=0.267 N=1.05 PB=0.894 PBSW=0.616 RD=176 RS=176 RSH=1.8 DELTA=-0.56 
+ ETA=0 GAMMA=0.618 KP=46.3u KAPPA=2 LD=0.01u NSUB=2.8E17 PHI=0.895 
+ THETA=0.199 TPG=+1 UO=100 VMAX=104.47K VTO=-0.676 WD=-0.06u XJ=0.1u 
*$
.model MbreakPD-50 PMOS LEVEL=3 L=0.35u W=5.0u TOX=7n CGDO=50.57E-12 
+ CGSO=50.57E-12 CJ=111E-5 CJSW=3.6E-10 JS=0.29E-6 JSSW=2.8E-13 MJ=0.453 
+ MJSW=0.267 N=1.05 PB=0.894 PBSW=0.616 RD=159.2 RS=159.2 RSH=1.8 DELTA=-0.56 
+ ETA=0 GAMMA=0.618 KP=46.3u KAPPA=2 LD=0.01u NSUB=2.8E17 PHI=0.895 
+ THETA=0.199 TPG=+1 UO=100 VMAX=104.47K VTO=-0.676 WD=-0.06u XJ=0.1u 
*$
.model MbreakPD-55 PMOS LEVEL=3 L=0.35u W=5.5u TOX=7n CGDO=50.57E-12 
+ CGSO=50.57E-12 CJ=111E-5 CJSW=3.6E-10 JS=0.29E-6 JSSW=2.8E-13 MJ=0.453 
+ MJSW=0.267 N=1.05 PB=0.894 PBSW=0.616 RD=145.4 RS=145.4 RSH=1.8 DELTA=-0.56 
+ ETA=0 GAMMA=0.618 KP=46.3u KAPPA=2 LD=0.01u NSUB=2.8E17 PHI=0.895 
+ THETA=0.199 TPG=+1 UO=100 VMAX=104.47K VTO=-0.676 WD=-0.06u XJ=0.1u 
*$
.model MbreakPD-60 PMOS LEVEL=3 L=0.35u W=6.0u TOX=7n CGDO=50.57E-12 
+ CGSO=50.57E-12 CJ=111E-5 CJSW=3.6E-10 JS=0.29E-6 JSSW=2.8E-13 MJ=0.453 
+ MJSW=0.267 N=1.05 PB=0.894 PBSW=0.616 RD=133.9 RS=133.9 RSH=1.8 DELTA=-0.56 
+ ETA=0 GAMMA=0.618 KP=46.3u KAPPA=2 LD=0.01u NSUB=2.8E17 PHI=0.895 
+ THETA=0.199 TPG=+1 UO=100 VMAX=104.47K VTO=-0.676 WD=-0.06u XJ=0.1u 
*$
.model MbreakPD-65 PMOS LEVEL=3 L=0.35u W=6.5u TOX=7n CGDO=50.57E-12 
+ CGSO=50.57E-12 CJ=111E-5 CJSW=3.6E-10 JS=0.29E-6 JSSW=2.8E-13 MJ=0.453 
+ MJSW=0.267 N=1.05 PB=0.894 PBSW=0.616 RD=124.1 RS=124.1 RSH=1.8 DELTA=-0.56 
+ ETA=0 GAMMA=0.618 KP=46.3u KAPPA=2 LD=0.01u NSUB=2.8E17 PHI=0.895 
+ THETA=0.199 TPG=+1 UO=100 VMAX=104.47K VTO=-0.676 WD=-0.06u XJ=0.1u 
*$
.model MbreakPD-70 PMOS LEVEL=3 L=0.35u W=7.0u TOX=7n CGDO=50.57E-12 
+ CGSO=50.57E-12 CJ=111E-5 CJSW=3.6E-10 JS=0.29E-6 JSSW=2.8E-13 MJ=0.453 
+ MJSW=0.267 N=1.05 PB=0.894 PBSW=0.616 RD=115.7 RS=115.7 RSH=1.8 DELTA=-0.56 
+ ETA=0 GAMMA=0.618 KP=46.3u KAPPA=2 LD=0.01u NSUB=2.8E17 PHI=0.895 
+ THETA=0.199 TPG=+1 UO=100 VMAX=104.47K VTO=-0.676 WD=-0.06u XJ=0.1u 
*$
.model MbreakPD-75 PMOS LEVEL=3 L=0.35u W=7.5u TOX=7n CGDO=50.57E-12 
+ CGSO=50.57E-12 CJ=111E-5 CJSW=3.6E-10 JS=0.29E-6 JSSW=2.8E-13 MJ=0.453 
+ MJSW=0.267 N=1.05 PB=0.894 PBSW=0.616 RD=108.3 RS=108.3 RSH=1.8 DELTA=-0.56 
+ ETA=0 GAMMA=0.618 KP=46.3u KAPPA=2 LD=0.01u NSUB=2.8E17 PHI=0.895 
+ THETA=0.199 TPG=+1 UO=100 VMAX=104.47K VTO=-0.676 WD=-0.06u XJ=0.1u 
*$
.model MbreakPD-80 PMOS LEVEL=3 L=0.35u W=8.0u TOX=7n CGDO=50.57E-12 
+ CGSO=50.57E-12 CJ=111E-5 CJSW=3.6E-10 JS=0.29E-6 JSSW=2.8E-13 MJ=0.453 
+ MJSW=0.267 N=1.05 PB=0.894 PBSW=0.616 RD=101.9 RS=101.9 RSH=1.8 DELTA=-0.56 
+ ETA=0 GAMMA=0.618 KP=46.3u KAPPA=2 LD=0.01u NSUB=2.8E17 PHI=0.895 
+ THETA=0.199 TPG=+1 UO=100 VMAX=104.47K VTO=-0.676 WD=-0.06u XJ=0.1u 
*$
.model MbreakPD-85 PMOS LEVEL=3 L=0.35u W=8.5u TOX=7n CGDO=50.57E-12 
+ CGSO=50.57E-12 CJ=111E-5 CJSW=3.6E-10 JS=0.29E-6 JSSW=2.8E-13 MJ=0.453 
+ MJSW=0.267 N=1.05 PB=0.894 PBSW=0.616 RD=96.3 RS=96.3 RSH=1.8 DELTA=-0.56 
+ ETA=0 GAMMA=0.618 KP=46.3u KAPPA=2 LD=0.01u NSUB=2.8E17 PHI=0.895 
+ THETA=0.199 TPG=+1 UO=100 VMAX=104.47K VTO=-0.676 WD=-0.06u XJ=0.1u 
*$
.model MbreakPD-90 PMOS LEVEL=3 L=0.35u W=9.0u TOX=7n CGDO=50.57E-12 
+ CGSO=50.57E-12 CJ=111E-5 CJSW=3.6E-10 JS=0.29E-6 JSSW=2.8E-13 MJ=0.453 
+ MJSW=0.267 N=1.05 PB=0.894 PBSW=0.616 RD=91.2 RS=91.2 RSH=1.8 DELTA=-0.56 
+ ETA=0 GAMMA=0.618 KP=46.3u KAPPA=2 LD=0.01u NSUB=2.8E17 PHI=0.895 
+ THETA=0.199 TPG=+1 UO=100 VMAX=104.47K VTO=-0.676 WD=-0.06u XJ=0.1u 
*$
.model MbreakPD-95 PMOS LEVEL=3 L=0.35u W=9.5u TOX=7n CGDO=50.57E-12 
+ CGSO=50.57E-12 CJ=111E-5 CJSW=3.6E-10 JS=0.29E-6 JSSW=2.8E-13 MJ=0.453 
+ MJSW=0.267 N=1.05 PB=0.894 PBSW=0.616 RD=86.7 RS=86.7 RSH=1.8 DELTA=-0.56 
+ ETA=0 GAMMA=0.618 KP=46.3u KAPPA=2 LD=0.01u NSUB=2.8E17 PHI=0.895 
+ THETA=0.199 TPG=+1 UO=100 VMAX=104.47K VTO=-0.676 WD=-0.06u XJ=0.1u 
*$
.model MbreakPD-100 PMOS LEVEL=3 L=0.35u W=10.0u TOX=7n CGDO=50.57E-12 
+ CGSO=50.57E-12 CJ=111E-5 CJSW=3.6E-10 JS=0.29E-6 JSSW=2.8E-13 MJ=0.453 
+ MJSW=0.267 N=1.05 PB=0.894 PBSW=0.616 RD=82.6 RS=82.6 RSH=1.8 DELTA=-0.56 
+ ETA=0 GAMMA=0.618 KP=46.3u KAPPA=2 LD=0.01u NSUB=2.8E17 PHI=0.895 
+ THETA=0.199 TPG=+1 UO=100 VMAX=104.47K VTO=-0.676 WD=-0.06u XJ=0.1u 
*$
.model MbreakPD-105 PMOS LEVEL=3 L=0.35u W=10.5u TOX=7n CGDO=50.57E-12 
+ CGSO=50.57E-12 CJ=111E-5 CJSW=3.6E-10 JS=0.29E-6 JSSW=2.8E-13 MJ=0.453 
+ MJSW=0.267 N=1.05 PB=0.894 PBSW=0.616 RD=78.9 RS=78.9 RSH=1.8 DELTA=-0.56 
+ ETA=0 GAMMA=0.618 KP=46.3u KAPPA=2 LD=0.01u NSUB=2.8E17 PHI=0.895 
+ THETA=0.199 TPG=+1 UO=100 VMAX=104.47K VTO=-0.676 WD=-0.06u XJ=0.1u 
*$
.model MbreakPD-110 PMOS LEVEL=3 L=0.35u W=11.0u TOX=7n CGDO=50.57E-12 
+ CGSO=50.57E-12 CJ=111E-5 CJSW=3.6E-10 JS=0.29E-6 JSSW=2.8E-13 MJ=0.453 
+ MJSW=0.267 N=1.05 PB=0.894 PBSW=0.616 RD=75.6 RS=75.6 RSH=1.8 DELTA=-0.56 
+ ETA=0 GAMMA=0.618 KP=46.3u KAPPA=2 LD=0.01u NSUB=2.8E17 PHI=0.895 
+ THETA=0.199 TPG=+1 UO=100 VMAX=104.47K VTO=-0.676 WD=-0.06u XJ=0.1u 
*$
.model MbreakPD-115 PMOS LEVEL=3 L=0.35u W=11.5u TOX=7n CGDO=50.57E-12 
+ CGSO=50.57E-12 CJ=111E-5 CJSW=3.6E-10 JS=0.29E-6 JSSW=2.8E-13 MJ=0.453 
+ MJSW=0.267 N=1.05 PB=0.894 PBSW=0.616 RD=72.5 RS=72.5 RSH=1.8 DELTA=-0.56 
+ ETA=0 GAMMA=0.618 KP=46.3u KAPPA=2 LD=0.01u NSUB=2.8E17 PHI=0.895 
+ THETA=0.199 TPG=+1 UO=100 VMAX=104.47K VTO=-0.676 WD=-0.06u XJ=0.1u 
*$
.model MbreakPD-120 PMOS LEVEL=3 L=0.35u W=12.0u TOX=7n CGDO=50.57E-12 
+ CGSO=50.57E-12 CJ=111E-5 CJSW=3.6E-10 JS=0.29E-6 JSSW=2.8E-13 MJ=0.453 
+ MJSW=0.267 N=1.05 PB=0.894 PBSW=0.616 RD=69.7 RS=69.7 RSH=1.8 DELTA=-0.56 
+ ETA=0 GAMMA=0.618 KP=46.3u KAPPA=2 LD=0.01u NSUB=2.8E17 PHI=0.895 
+ THETA=0.199 TPG=+1 UO=100 VMAX=104.47K VTO=-0.676 WD=-0.06u XJ=0.1u 
*$
.model MbreakPD-125 PMOS LEVEL=3 L=0.35u W=12.5u TOX=7n CGDO=50.57E-12 
+ CGSO=50.57E-12 CJ=111E-5 CJSW=3.6E-10 JS=0.29E-6 JSSW=2.8E-13 MJ=0.453 
+ MJSW=0.267 N=1.05 PB=0.894 PBSW=0.616 RD=67.1 RS=67.1 RSH=1.8 DELTA=-0.56 
+ ETA=0 GAMMA=0.618 KP=46.3u KAPPA=2 LD=0.01u NSUB=2.8E17 PHI=0.895 
+ THETA=0.199 TPG=+1 UO=100 VMAX=104.47K VTO=-0.676 WD=-0.06u XJ=0.1u 
*$
.model MbreakPD-130 PMOS LEVEL=3 L=0.35u W=13.0u TOX=7n CGDO=50.57E-12 
+ CGSO=50.57E-12 CJ=111E-5 CJSW=3.6E-10 JS=0.29E-6 JSSW=2.8E-13 MJ=0.453 
+ MJSW=0.267 N=1.05 PB=0.894 PBSW=0.616 RD=64.7 RS=64.7 RSH=1.8 DELTA=-0.56 
+ ETA=0 GAMMA=0.618 KP=46.3u KAPPA=2 LD=0.01u NSUB=2.8E17 PHI=0.895 
+ THETA=0.199 TPG=+1 UO=100 VMAX=104.47K VTO=-0.676 WD=-0.06u XJ=0.1u 
*$
.model MbreakPD-135 PMOS LEVEL=3 L=0.35u W=13.5u TOX=7n CGDO=50.57E-12 
+ CGSO=50.57E-12 CJ=111E-5 CJSW=3.6E-10 JS=0.29E-6 JSSW=2.8E-13 MJ=0.453 
+ MJSW=0.267 N=1.05 PB=0.894 PBSW=0.616 RD=62.5 RS=62.5 RSH=1.8 DELTA=-0.56 
+ ETA=0 GAMMA=0.618 KP=46.3u KAPPA=2 LD=0.01u NSUB=2.8E17 PHI=0.895 
+ THETA=0.199 TPG=+1 UO=100 VMAX=104.47K VTO=-0.676 WD=-0.06u XJ=0.1u 
*$
.model MbreakPD-140 PMOS LEVEL=3 L=0.35u W=14.0u TOX=7n CGDO=50.57E-12 
+ CGSO=50.57E-12 CJ=111E-5 CJSW=3.6E-10 JS=0.29E-6 JSSW=2.8E-13 MJ=0.453 
+ MJSW=0.267 N=1.05 PB=0.894 PBSW=0.616 RD=60.4 RS=60.4 RSH=1.8 DELTA=-0.56 
+ ETA=0 GAMMA=0.618 KP=46.3u KAPPA=2 LD=0.01u NSUB=2.8E17 PHI=0.895 
+ THETA=0.199 TPG=+1 UO=100 VMAX=104.47K VTO=-0.676 WD=-0.06u XJ=0.1u 
*$
.model MbreakPD-145 PMOS LEVEL=3 L=0.35u W=14.5u TOX=7n CGDO=50.57E-12 
+ CGSO=50.57E-12 CJ=111E-5 CJSW=3.6E-10 JS=0.29E-6 JSSW=2.8E-13 MJ=0.453 
+ MJSW=0.267 N=1.05 PB=0.894 PBSW=0.616 RD=58.5 RS=58.5 RSH=1.8 DELTA=-0.56 
+ ETA=0 GAMMA=0.618 KP=46.3u KAPPA=2 LD=0.01u NSUB=2.8E17 PHI=0.895 
+ THETA=0.199 TPG=+1 UO=100 VMAX=104.47K VTO=-0.676 WD=-0.06u XJ=0.1u 
*$
.model MbreakPD-150 PMOS LEVEL=3 L=0.35u W=15.0u TOX=7n CGDO=50.57E-12 
+ CGSO=50.57E-12 CJ=111E-5 CJSW=3.6E-10 JS=0.29E-6 JSSW=2.8E-13 MJ=0.453 
+ MJSW=0.267 N=1.05 PB=0.894 PBSW=0.616 RD=56.7 RS=56.7 RSH=1.8 DELTA=-0.56 
+ ETA=0 GAMMA=0.618 KP=46.3u KAPPA=2 LD=0.01u NSUB=2.8E17 PHI=0.895 
+ THETA=0.199 TPG=+1 UO=100 VMAX=104.47K VTO=-0.676 WD=-0.06u XJ=0.1u 
*$
.model MbreakPD-155 PMOS LEVEL=3 L=0.35u W=15.5u TOX=7n CGDO=50.57E-12 
+ CGSO=50.57E-12 CJ=111E-5 CJSW=3.6E-10 JS=0.29E-6 JSSW=2.8E-13 MJ=0.453 
+ MJSW=0.267 N=1.05 PB=0.894 PBSW=0.616 RD=55 RS=55 RSH=1.8 DELTA=-0.56 
+ ETA=0 GAMMA=0.618 KP=46.3u KAPPA=2 LD=0.01u NSUB=2.8E17 PHI=0.895 
+ THETA=0.199 TPG=+1 UO=100 VMAX=104.47K VTO=-0.676 WD=-0.06u XJ=0.1u 
*$
.model MbreakPD-160 PMOS LEVEL=3 L=0.35u W=16.0u TOX=7n CGDO=50.57E-12 
+ CGSO=50.57E-12 CJ=111E-5 CJSW=3.6E-10 JS=0.29E-6 JSSW=2.8E-13 MJ=0.453 
+ MJSW=0.267 N=1.05 PB=0.894 PBSW=0.616 RD=53.4 RS=53.4 RSH=1.8 DELTA=-0.56 
+ ETA=0 GAMMA=0.618 KP=46.3u KAPPA=2 LD=0.01u NSUB=2.8E17 PHI=0.895 
+ THETA=0.199 TPG=+1 UO=100 VMAX=104.47K VTO=-0.676 WD=-0.06u XJ=0.1u 
*$
.model MbreakPD-165 PMOS LEVEL=3 L=0.35u W=16.5u TOX=7n CGDO=50.57E-12 
+ CGSO=50.57E-12 CJ=111E-5 CJSW=3.6E-10 JS=0.29E-6 JSSW=2.8E-13 MJ=0.453 
+ MJSW=0.267 N=1.05 PB=0.894 PBSW=0.616 RD=51.9 RS=51.9 RSH=1.8 DELTA=-0.56 
+ ETA=0 GAMMA=0.618 KP=46.3u KAPPA=2 LD=0.01u NSUB=2.8E17 PHI=0.895 
+ THETA=0.199 TPG=+1 UO=100 VMAX=104.47K VTO=-0.676 WD=-0.06u XJ=0.1u 
*$
.model MbreakPD-170 PMOS LEVEL=3 L=0.35u W=17.0u TOX=7n CGDO=50.57E-12 
+ CGSO=50.57E-12 CJ=111E-5 CJSW=3.6E-10 JS=0.29E-6 JSSW=2.8E-13 MJ=0.453 
+ MJSW=0.267 N=1.05 PB=0.894 PBSW=0.616 RD=50.6 RS=50.6 RSH=1.8 DELTA=-0.56 
+ ETA=0 GAMMA=0.618 KP=46.3u KAPPA=2 LD=0.01u NSUB=2.8E17 PHI=0.895 
+ THETA=0.199 TPG=+1 UO=100 VMAX=104.47K VTO=-0.676 WD=-0.06u XJ=0.1u 
*$
.model MbreakPD-175 PMOS LEVEL=3 L=0.35u W=17.5u TOX=7n CGDO=50.57E-12 
+ CGSO=50.57E-12 CJ=111E-5 CJSW=3.6E-10 JS=0.29E-6 JSSW=2.8E-13 MJ=0.453 
+ MJSW=0.267 N=1.05 PB=0.894 PBSW=0.616 RD=49.2 RS=49.2 RSH=1.8 DELTA=-0.56 
+ ETA=0 GAMMA=0.618 KP=46.3u KAPPA=2 LD=0.01u NSUB=2.8E17 PHI=0.895 
+ THETA=0.199 TPG=+1 UO=100 VMAX=104.47K VTO=-0.676 WD=-0.06u XJ=0.1u 
*$
.model MbreakPD-180 PMOS LEVEL=3 L=0.35u W=18.0u TOX=7n CGDO=50.57E-12 
+ CGSO=50.57E-12 CJ=111E-5 CJSW=3.6E-10 JS=0.29E-6 JSSW=2.8E-13 MJ=0.453 
+ MJSW=0.267 N=1.05 PB=0.894 PBSW=0.616 RD=48 RS=48 RSH=1.8 DELTA=-0.56 
+ ETA=0 GAMMA=0.618 KP=46.3u KAPPA=2 LD=0.01u NSUB=2.8E17 PHI=0.895 
+ THETA=0.199 TPG=+1 UO=100 VMAX=104.47K VTO=-0.676 WD=-0.06u XJ=0.1u 
*$
.model MbreakPD-185 PMOS LEVEL=3 L=0.35u W=18.5u TOX=7n CGDO=50.57E-12 
+ CGSO=50.57E-12 CJ=111E-5 CJSW=3.6E-10 JS=0.29E-6 JSSW=2.8E-13 MJ=0.453 
+ MJSW=0.267 N=1.05 PB=0.894 PBSW=0.616 RD=46.8 RS=46.8 RSH=1.8 DELTA=-0.56 
+ ETA=0 GAMMA=0.618 KP=46.3u KAPPA=2 LD=0.01u NSUB=2.8E17 PHI=0.895 
+ THETA=0.199 TPG=+1 UO=100 VMAX=104.47K VTO=-0.676 WD=-0.06u XJ=0.1u 
*$
.model MbreakPD-190 PMOS LEVEL=3 L=0.35u W=19.0u TOX=7n CGDO=50.57E-12 
+ CGSO=50.57E-12 CJ=111E-5 CJSW=3.6E-10 JS=0.29E-6 JSSW=2.8E-13 MJ=0.453 
+ MJSW=0.267 N=1.05 PB=0.894 PBSW=0.616 RD=45.7 RS=45.7 RSH=1.8 DELTA=-0.56 
+ ETA=0 GAMMA=0.618 KP=46.3u KAPPA=2 LD=0.01u NSUB=2.8E17 PHI=0.895 
+ THETA=0.199 TPG=+1 UO=100 VMAX=104.47K VTO=-0.676 WD=-0.06u XJ=0.1u 
*$
.model MbreakPD-195 PMOS LEVEL=3 L=0.35u W=19.5u TOX=7n CGDO=50.57E-12 
+ CGSO=50.57E-12 CJ=111E-5 CJSW=3.6E-10 JS=0.29E-6 JSSW=2.8E-13 MJ=0.453 
+ MJSW=0.267 N=1.05 PB=0.894 PBSW=0.616 RD=44.6 RS=44.6 RSH=1.8 DELTA=-0.56 
+ ETA=0 GAMMA=0.618 KP=46.3u KAPPA=2 LD=0.01u NSUB=2.8E17 PHI=0.895 
+ THETA=0.199 TPG=+1 UO=100 VMAX=104.47K VTO=-0.676 WD=-0.06u XJ=0.1u 
*$
.model MbreakPD-200 PMOS LEVEL=3 L=0.35u W=20.0u TOX=7n CGDO=50.57E-12 
+ CGSO=50.57E-12 CJ=111E-5 CJSW=3.6E-10 JS=0.29E-6 JSSW=2.8E-13 MJ=0.453 
+ MJSW=0.267 N=1.05 PB=0.894 PBSW=0.616 RD=43.6 RS=43.6 RSH=1.8 DELTA=-0.56 
+ ETA=0 GAMMA=0.618 KP=46.3u KAPPA=2 LD=0.01u NSUB=2.8E17 PHI=0.895 
+ THETA=0.199 TPG=+1 UO=100 VMAX=104.47K VTO=-0.676 WD=-0.06u XJ=0.1u 
*$
.model MbreakPD-205 PMOS LEVEL=3 L=0.35u W=20.5u TOX=7n CGDO=50.57E-12 
+ CGSO=50.57E-12 CJ=111E-5 CJSW=3.6E-10 JS=0.29E-6 JSSW=2.8E-13 MJ=0.453 
+ MJSW=0.267 N=1.05 PB=0.894 PBSW=0.616 RD=42.7 RS=42.7 RSH=1.8 DELTA=-0.56 
+ ETA=0 GAMMA=0.618 KP=46.3u KAPPA=2 LD=0.01u NSUB=2.8E17 PHI=0.895 
+ THETA=0.199 TPG=+1 UO=100 VMAX=104.47K VTO=-0.676 WD=-0.06u XJ=0.1u 
*$
.model MbreakPD-210 PMOS LEVEL=3 L=0.35u W=21.0u TOX=7n CGDO=50.57E-12 
+ CGSO=50.57E-12 CJ=111E-5 CJSW=3.6E-10 JS=0.29E-6 JSSW=2.8E-13 MJ=0.453 
+ MJSW=0.267 N=1.05 PB=0.894 PBSW=0.616 RD=41.8 RS=41.8 RSH=1.8 DELTA=-0.56 
+ ETA=0 GAMMA=0.618 KP=46.3u KAPPA=2 LD=0.01u NSUB=2.8E17 PHI=0.895 
+ THETA=0.199 TPG=+1 UO=100 VMAX=104.47K VTO=-0.676 WD=-0.06u XJ=0.1u 
*$
.model MbreakPD-215 PMOS LEVEL=3 L=0.35u W=21.5u TOX=7n CGDO=50.57E-12 
+ CGSO=50.57E-12 CJ=111E-5 CJSW=3.6E-10 JS=0.29E-6 JSSW=2.8E-13 MJ=0.453 
+ MJSW=0.267 N=1.05 PB=0.894 PBSW=0.616 RD=40.9 RS=40.9 RSH=1.8 DELTA=-0.56 
+ ETA=0 GAMMA=0.618 KP=46.3u KAPPA=2 LD=0.01u NSUB=2.8E17 PHI=0.895 
+ THETA=0.199 TPG=+1 UO=100 VMAX=104.47K VTO=-0.676 WD=-0.06u XJ=0.1u 
*$
.model MbreakPD-220 PMOS LEVEL=3 L=0.35u W=22.0u TOX=7n CGDO=50.57E-12 
+ CGSO=50.57E-12 CJ=111E-5 CJSW=3.6E-10 JS=0.29E-6 JSSW=2.8E-13 MJ=0.453 
+ MJSW=0.267 N=1.05 PB=0.894 PBSW=0.616 RD=40.1 RS=40.1 RSH=1.8 DELTA=-0.56 
+ ETA=0 GAMMA=0.618 KP=46.3u KAPPA=2 LD=0.01u NSUB=2.8E17 PHI=0.895 
+ THETA=0.199 TPG=+1 UO=100 VMAX=104.47K VTO=-0.676 WD=-0.06u XJ=0.1u 
*$
.model MbreakPD-225 PMOS LEVEL=3 L=0.35u W=22.5u TOX=7n CGDO=50.57E-12 
+ CGSO=50.57E-12 CJ=111E-5 CJSW=3.6E-10 JS=0.29E-6 JSSW=2.8E-13 MJ=0.453 
+ MJSW=0.267 N=1.05 PB=0.894 PBSW=0.616 RD=39.3 RS=39.3 RSH=1.8 DELTA=-0.56 
+ ETA=0 GAMMA=0.618 KP=46.3u KAPPA=2 LD=0.01u NSUB=2.8E17 PHI=0.895 
+ THETA=0.199 TPG=+1 UO=100 VMAX=104.47K VTO=-0.676 WD=-0.06u XJ=0.1u 
*$
.model MbreakPD-230 PMOS LEVEL=3 L=0.35u W=23.0u TOX=7n CGDO=50.57E-12 
+ CGSO=50.57E-12 CJ=111E-5 CJSW=3.6E-10 JS=0.29E-6 JSSW=2.8E-13 MJ=0.453 
+ MJSW=0.267 N=1.05 PB=0.894 PBSW=0.616 RD=38.5 RS=38.5 RSH=1.8 DELTA=-0.56 
+ ETA=0 GAMMA=0.618 KP=46.3u KAPPA=2 LD=0.01u NSUB=2.8E17 PHI=0.895 
+ THETA=0.199 TPG=+1 UO=100 VMAX=104.47K VTO=-0.676 WD=-0.06u XJ=0.1u 
*$
.model MbreakPD-235 PMOS LEVEL=3 L=0.35u W=23.5u TOX=7n CGDO=50.57E-12 
+ CGSO=50.57E-12 CJ=111E-5 CJSW=3.6E-10 JS=0.29E-6 JSSW=2.8E-13 MJ=0.453 
+ MJSW=0.267 N=1.05 PB=0.894 PBSW=0.616 RD=37.8 RS=37.8 RSH=1.8 DELTA=-0.56 
+ ETA=0 GAMMA=0.618 KP=46.3u KAPPA=2 LD=0.01u NSUB=2.8E17 PHI=0.895 
+ THETA=0.199 TPG=+1 UO=100 VMAX=104.47K VTO=-0.676 WD=-0.06u XJ=0.1u 
*$
.model MbreakPD-240 PMOS LEVEL=3 L=0.35u W=24.0u TOX=7n CGDO=50.57E-12 
+ CGSO=50.57E-12 CJ=111E-5 CJSW=3.6E-10 JS=0.29E-6 JSSW=2.8E-13 MJ=0.453 
+ MJSW=0.267 N=1.05 PB=0.894 PBSW=0.616 RD=37.1 RS=37.1 RSH=1.8 DELTA=-0.56 
+ ETA=0 GAMMA=0.618 KP=46.3u KAPPA=2 LD=0.01u NSUB=2.8E17 PHI=0.895 
+ THETA=0.199 TPG=+1 UO=100 VMAX=104.47K VTO=-0.676 WD=-0.06u XJ=0.1u 
*$
.model MbreakPD-310 PMOS LEVEL=3 L=0.35u W=31.0u TOX=7n CGDO=50.57E-12 
+ CGSO=50.57E-12 CJ=111E-5 CJSW=3.6E-10 JS=0.29E-6 JSSW=2.8E-13 MJ=0.453 
+ MJSW=0.267 N=1.05 PB=0.894 PBSW=0.616 RD=29.7 RS=29.7 RSH=1.8 DELTA=-0.56 
+ ETA=0 GAMMA=0.618 KP=46.3u KAPPA=2 LD=0.01u NSUB=2.8E17 PHI=0.895 
+ THETA=0.199 TPG=+1 UO=100 VMAX=104.47K VTO=-0.676 WD=-0.06u XJ=0.1u 
*$
.model MbreakPD-465 PMOS LEVEL=3 L=0.35u W=46.5u TOX=7n CGDO=50.57E-12 
+ CGSO=50.57E-12 CJ=111E-5 CJSW=3.6E-10 JS=0.29E-6 JSSW=2.8E-13 MJ=0.453 
+ MJSW=0.267 N=1.05 PB=0.894 PBSW=0.616 RD=21.2 RS=21.2 RSH=1.8 DELTA=-0.56 
+ ETA=0 GAMMA=0.618 KP=46.3u KAPPA=2 LD=0.01u NSUB=2.8E17 PHI=0.895 
+ THETA=0.199 TPG=+1 UO=100 VMAX=104.47K VTO=-0.676 WD=-0.06u XJ=0.1u 
*$
.model MbreakPD-470 PMOS LEVEL=3 L=0.35u W=47.0u TOX=7n CGDO=50.57E-12 
+ CGSO=50.57E-12 CJ=111E-5 CJSW=3.6E-10 JS=0.29E-6 JSSW=2.8E-13 MJ=0.453 
+ MJSW=0.267 N=1.05 PB=0.894 PBSW=0.616 RD=21 RS=21 RSH=1.8 DELTA=-0.56 
+ ETA=0 GAMMA=0.618 KP=46.3u KAPPA=2 LD=0.01u NSUB=2.8E17 PHI=0.895 
+ THETA=0.199 TPG=+1 UO=100 VMAX=104.47K VTO=-0.676 WD=-0.06u XJ=0.1u 
*$
.model MbreakPD-630 PMOS LEVEL=3 L=0.35u W=63.0u TOX=7n CGDO=50.57E-12 
+ CGSO=50.57E-12 CJ=111E-5 CJSW=3.6E-10 JS=0.29E-6 JSSW=2.8E-13 MJ=0.453 
+ MJSW=0.267 N=1.05 PB=0.894 PBSW=0.616 RD=16.8 RS=16.8 RSH=1.8 DELTA=-0.56 
+ ETA=0 GAMMA=0.618 KP=46.3u KAPPA=2 LD=0.01u NSUB=2.8E17 PHI=0.895 
+ THETA=0.199 TPG=+1 UO=100 VMAX=104.47K VTO=-0.676 WD=-0.06u XJ=0.1u 
*$
.model MbreakPD-640 PMOS LEVEL=3 L=0.35u W=64.0u TOX=7n CGDO=50.57E-12 
+ CGSO=50.57E-12 CJ=111E-5 CJSW=3.6E-10 JS=0.29E-6 JSSW=2.8E-13 MJ=0.453 
+ MJSW=0.267 N=1.05 PB=0.894 PBSW=0.616 RD=16.6 RS=16.6 RSH=1.8 DELTA=-0.56 
+ ETA=0 GAMMA=0.618 KP=46.3u KAPPA=2 LD=0.01u NSUB=2.8E17 PHI=0.895 
+ THETA=0.199 TPG=+1 UO=100 VMAX=104.47K VTO=-0.676 WD=-0.06u XJ=0.1u 
*$
.model MbreakPD-800 PMOS LEVEL=3 L=0.35u W=80.0u TOX=7n CGDO=50.57E-12 
+ CGSO=50.57E-12 CJ=111E-5 CJSW=3.6E-10 JS=0.29E-6 JSSW=2.8E-13 MJ=0.453 
+ MJSW=0.267 N=1.05 PB=0.894 PBSW=0.616 RD=14.1 RS=14.1 RSH=1.8 DELTA=-0.56 
+ ETA=0 GAMMA=0.618 KP=46.3u KAPPA=2 LD=0.01u NSUB=2.8E17 PHI=0.895 
+ THETA=0.199 TPG=+1 UO=100 VMAX=104.47K VTO=-0.676 WD=-0.06u XJ=0.1u 
*$
.model MbreakPD-810 PMOS LEVEL=3 L=0.35u W=81.0u TOX=7n CGDO=50.57E-12 
+ CGSO=50.57E-12 CJ=111E-5 CJSW=3.6E-10 JS=0.29E-6 JSSW=2.8E-13 MJ=0.453 
+ MJSW=0.267 N=1.05 PB=0.894 PBSW=0.616 RD=14 RS=14 RSH=1.8 DELTA=-0.56 
+ ETA=0 GAMMA=0.618 KP=46.3u KAPPA=2 LD=0.01u NSUB=2.8E17 PHI=0.895 
+ THETA=0.199 TPG=+1 UO=100 VMAX=104.47K VTO=-0.676 WD=-0.06u XJ=0.1u 
*$
